15
File generated with eminus 2.5.0 on Mon Jul 31 12:23:45 2023
C    5.291772   5.291772   5.291772
H    5.919372   5.919372   5.919372
H    5.919372   4.664172   4.664172
H    4.664172   5.919372   4.664172
H    4.664172   4.664172   5.919372
X    5.291772   5.291772   5.291772
X    5.708119   4.875465   4.875464
X    5.708119   5.708119   5.708118
X    4.875465   5.708119   4.875465
X    4.875465   4.875465   5.708119
He   5.291772   5.291772   5.291772
He   5.708119   4.875464   4.875464
He   4.875464   5.708119   4.875464
He   5.708119   5.708119   5.708119
He   4.875464   4.875464   5.708119
